
     RDKit          3D

  5  4  0  0  0  0  0  0  0  0999 V2000
    0.1574    0.9752   -1.1634 O   0  0  0  0  0  0  0  0  0  0  0  0
   -0.0011    0.0409    0.0022 S   0  0  0  0  0  6  0  0  0  0  0  0
   -0.2049    0.8382    1.2589 O   0  0  0  0  0  0  0  0  0  0  0  0
   -1.3315   -0.9519   -0.2530 O   0  0  0  0  0  1  0  0  0  0  0  0
    1.3801   -0.9023    0.1554 O   0  0  0  0  0  1  0  0  0  0  0  0
  1  2  2  0
  2  3  2  0
  2  4  1  0
  2  5  1  0
M  CHG  2   4  -1   5  -1
M  END
$$$$
