
     RDKit          3D

 31 35  0  0  0  0  0  0  0  0999 V2000
    1.3580   -6.4230   -0.6487 N   0  0  0  0  0  0  0  0  0  0  0  0
    1.2004   -5.3297   -0.3035 C   0  0  0  0  0  0  0  0  0  0  0  0
    1.0034   -3.9677    0.1267 C   0  0  0  0  0  0  0  0  0  0  0  0
   -0.2975   -3.5014    0.3459 C   0  0  0  0  0  0  0  0  0  0  0  0
   -0.5247   -2.1781    0.7591 C   0  0  0  0  0  0  0  0  0  0  0  0
   -1.9155   -1.6985    0.9453 C   0  0  0  0  0  0  0  0  0  0  0  0
   -2.3542   -0.5402    0.2794 C   0  0  0  0  0  0  0  0  0  0  0  0
   -3.6696   -0.0699    0.4510 C   0  0  0  0  0  0  0  0  0  0  0  0
   -4.1367    1.0910   -0.1805 O   0  0  0  0  0  0  0  0  0  0  0  0
   -3.3368    1.9099   -1.0287 C   0  0  0  0  0  0  0  0  0  0  0  0
   -3.7996    3.3532   -1.0540 C   0  0  0  0  0  0  0  0  0  0  0  0
   -2.5442    2.9688   -0.2857 C   0  0  0  0  0  0  0  0  0  0  0  0
   -4.5457   -0.7759    1.2816 C   0  0  0  0  0  0  0  0  0  0  0  0
   -4.1204   -1.9317    1.9400 C   0  0  0  0  0  0  0  0  0  0  0  0
   -2.8121   -2.3945    1.7767 C   0  0  0  0  0  0  0  0  0  0  0  0
   -2.4144   -3.5036    2.4507 F   0  0  0  0  0  0  0  0  0  0  0  0
    0.5704   -1.3121    0.9599 C   0  0  0  0  0  0  0  0  0  0  0  0
    0.3251    0.0034    1.3943 O   0  0  0  0  0  0  0  0  0  0  0  0
    1.2856    1.0577    1.4232 C   0  0  0  0  0  0  0  0  0  0  0  0
    1.6843    1.4333    0.0288 C   0  0  0  0  0  0  0  0  0  0  0  0
    0.8009    1.7464   -0.9530 N   0  0  0  0  0  0  0  0  0  0  0  0
    1.4855    2.0239   -2.0579 N   0  0  0  0  0  0  0  0  0  0  0  0
    2.7902    1.8903   -1.7817 C   0  0  0  0  0  0  0  0  0  0  0  0
    3.8282    2.0760   -2.6338 N   0  0  0  0  0  0  0  0  0  0  0  0
    5.1007    1.8869   -2.1681 C   0  0  0  0  0  0  0  0  0  0  0  0
    5.3264    1.5047   -0.8236 C   0  0  0  0  0  0  0  0  0  0  0  0
    4.2351    1.3171    0.0446 C   0  0  0  0  0  0  0  0  0  0  0  0
    2.9642    1.5232   -0.4829 C   0  0  0  0  0  0  0  0  0  0  0  0
    1.8762   -1.7892    0.7360 C   0  0  0  0  0  0  0  0  0  0  0  0
    2.0944   -3.1060    0.3208 C   0  0  0  0  0  0  0  0  0  0  0  0
    3.7492   -3.6460    0.0536 Cl  0  0  0  0  0  0  0  0  0  0  0  0
  1  2  3  0
  2  3  1  0
  3  4  2  0
  4  5  1  0
  5  6  1  0
  6  7  2  0
  7  8  1  0
  8  9  1  0
  9 10  1  0
 10 11  1  0
 11 12  1  0
  8 13  2  0
 13 14  1  0
 14 15  2  0
 15 16  1  0
  5 17  2  0
 17 18  1  0
 18 19  1  0
 19 20  1  0
 20 21  2  0
 21 22  1  0
 22 23  1  0
 23 24  2  0
 24 25  1  0
 25 26  2  0
 26 27  1  0
 27 28  2  0
 17 29  1  0
 29 30  2  0
 30 31  1  0
 30  3  1  0
 15  6  1  0
 28 20  1  0
 12 10  1  0
 28 23  1  0
M  END
$$$$
