
     RDKit          3D

  5  4  0  0  0  0  0  0  0  0999 V2000
   -0.2402   -1.1380   -0.9883 O   0  0  0  0  0  0  0  0  0  0  0  0
   -0.0086   -0.0389    0.0093 S   0  0  0  0  0  6  0  0  0  0  0  0
   -0.1409   -0.5896    1.4007 O   0  0  0  0  0  0  0  0  0  0  0  0
    1.5344    0.5905   -0.1993 O   0  0  0  0  0  1  0  0  0  0  0  0
   -1.1448    1.1760   -0.2224 O   0  0  0  0  0  1  0  0  0  0  0  0
  1  2  2  0
  2  3  2  0
  2  4  1  0
  2  5  1  0
M  CHG  2   4  -1   5  -1
M  END
$$$$
