
     RDKit          3D

 29 32  0  0  0  0  0  0  0  0999 V2000
    1.2277    0.0143    2.5654 C   0  0  0  0  0  0  0  0  0  0  0  0
    2.3753   -0.3303    1.7293 N   0  0  0  0  0  0  0  0  0  0  0  0
    2.9549    0.3887    0.7403 C   0  0  0  0  0  0  0  0  0  0  0  0
    2.4118    1.6681    0.1817 C   0  0  0  0  0  0  0  0  0  0  0  0
    1.2617    1.4000   -0.6180 O   0  0  0  0  0  0  0  0  0  0  0  0
    1.2656    0.7701   -1.8761 C   0  0  0  0  0  0  0  0  0  0  0  0
    2.4399    0.6352   -2.6411 C   0  0  0  0  0  0  0  0  0  0  0  0
    2.4010    0.0464   -3.9092 C   0  0  0  0  0  0  0  0  0  0  0  0
    3.8986   -0.0908   -4.8256 Cl  0  0  0  0  0  0  0  0  0  0  0  0
    1.1813   -0.4167   -4.4290 C   0  0  0  0  0  0  0  0  0  0  0  0
    1.1138   -1.0264   -5.7339 C   0  0  0  0  0  0  0  0  0  0  0  0
    1.0591   -1.5159   -6.7811 N   0  0  0  0  0  0  0  0  0  0  0  0
    0.0126   -0.2979   -3.6690 C   0  0  0  0  0  0  0  0  0  0  0  0
    0.0477    0.2837   -2.3922 C   0  0  0  0  0  0  0  0  0  0  0  0
   -1.1846    0.3301   -1.5747 C   0  0  0  0  0  0  0  0  0  0  0  0
   -1.1987   -0.2711   -0.3057 C   0  0  0  0  0  0  0  0  0  0  0  0
   -2.3379   -0.2135    0.5025 C   0  0  0  0  0  0  0  0  0  0  0  0
   -2.2837   -0.8086    1.7698 O   0  0  0  0  0  0  0  0  0  0  0  0
   -3.3444   -0.7564    2.7180 C   0  0  0  0  0  0  0  0  0  0  0  0
   -2.8550   -0.8829    4.1473 C   0  0  0  0  0  0  0  0  0  0  0  0
   -3.3029    0.4686    3.6115 C   0  0  0  0  0  0  0  0  0  0  0  0
   -3.4889    0.4390    0.0239 C   0  0  0  0  0  0  0  0  0  0  0  0
   -3.4888    1.0217   -1.2466 C   0  0  0  0  0  0  0  0  0  0  0  0
   -2.3437    0.9697   -2.0467 C   0  0  0  0  0  0  0  0  0  0  0  0
   -2.3568    1.5668   -3.2656 F   0  0  0  0  0  0  0  0  0  0  0  0
    4.0617   -0.2227    0.2627 N   0  0  0  0  0  0  0  0  0  0  0  0
    4.2078   -1.3320    0.9713 N   0  0  0  0  0  0  0  0  0  0  0  0
    3.1993   -1.3846    1.8549 C   0  0  0  0  0  0  0  0  0  0  0  0
    3.0522   -2.3063    2.7013 O   0  0  0  0  0  0  0  0  0  0  0  0
  1  2  1  0
  2  3  1  0
  3  4  1  0
  4  5  1  0
  5  6  1  0
  6  7  2  0
  7  8  1  0
  8  9  1  0
  8 10  2  0
 10 11  1  0
 11 12  3  0
 10 13  1  0
 13 14  2  0
 14 15  1  0
 15 16  2  0
 16 17  1  0
 17 18  1  0
 18 19  1  0
 19 20  1  0
 20 21  1  0
 17 22  2  0
 22 23  1  0
 23 24  2  0
 24 25  1  0
  3 26  2  0
 26 27  1  0
 27 28  1  0
 28 29  2  0
 28  2  1  0
 14  6  1  0
 24 15  1  0
 21 19  1  0
M  END
$$$$
