
     RDKit          3D

  5  4  0  0  0  0  0  0  0  0999 V2000
   -0.0448   -0.9040   -1.2289 O   0  0  0  0  0  0  0  0  0  0  0  0
   -0.0005   -0.0409   -0.0001 S   0  0  0  0  0  6  0  0  0  0  0  0
    0.0210   -0.9123    1.2234 O   0  0  0  0  0  0  0  0  0  0  0  0
    1.3828    0.9108   -0.0341 O   0  0  0  0  0  1  0  0  0  0  0  0
   -1.3585    0.9465    0.0397 O   0  0  0  0  0  1  0  0  0  0  0  0
  1  2  2  0
  2  3  2  0
  2  4  1  0
  2  5  1  0
M  CHG  2   4  -1   5  -1
M  END
$$$$
