
     RDKit          3D

 31 35  0  0  0  0  0  0  0  0999 V2000
    2.6247   -7.2847    0.5962 N   0  0  0  0  0  0  0  0  0  0  0  0
    2.4188   -6.1590    0.4240 C   0  0  0  0  0  0  0  0  0  0  0  0
    2.1618   -4.7565    0.2095 C   0  0  0  0  0  0  0  0  0  0  0  0
    0.8571   -4.2710    0.3544 C   0  0  0  0  0  0  0  0  0  0  0  0
    0.5740   -2.9098    0.1562 C   0  0  0  0  0  0  0  0  0  0  0  0
   -0.8129   -2.4107    0.3265 C   0  0  0  0  0  0  0  0  0  0  0  0
   -1.0649   -1.3077    1.1614 C   0  0  0  0  0  0  0  0  0  0  0  0
   -2.3528   -0.7762    1.2804 C   0  0  0  0  0  0  0  0  0  0  0  0
   -2.5334    0.3536    2.0894 O   0  0  0  0  0  0  0  0  0  0  0  0
   -3.7655    1.0578    2.2061 C   0  0  0  0  0  0  0  0  0  0  0  0
   -3.9709    2.1074    1.1300 C   0  0  0  0  0  0  0  0  0  0  0  0
   -3.5708    2.5245    2.5371 C   0  0  0  0  0  0  0  0  0  0  0  0
   -3.4138   -1.3794    0.5815 C   0  0  0  0  0  0  0  0  0  0  0  0
   -3.1773   -2.4915   -0.2303 C   0  0  0  0  0  0  0  0  0  0  0  0
   -1.8845   -3.0058   -0.3643 C   0  0  0  0  0  0  0  0  0  0  0  0
   -1.6749   -4.0572   -1.1969 F   0  0  0  0  0  0  0  0  0  0  0  0
    1.6148   -2.0259   -0.1963 C   0  0  0  0  0  0  0  0  0  0  0  0
    1.3068   -0.6732   -0.4095 O   0  0  0  0  0  0  0  0  0  0  0  0
    2.2557    0.3556   -0.6681 C   0  0  0  0  0  0  0  0  0  0  0  0
    1.5507    1.6738   -0.7053 C   0  0  0  0  0  0  0  0  0  0  0  0
    0.4088    1.9496   -0.0256 N   0  0  0  0  0  0  0  0  0  0  0  0
    0.1013    3.2261   -0.2295 N   0  0  0  0  0  0  0  0  0  0  0  0
    1.0445    3.7656   -1.0175 C   0  0  0  0  0  0  0  0  0  0  0  0
    1.1564    5.0717   -1.4796 C   0  0  0  0  0  0  0  0  0  0  0  0
    2.2340    5.3824   -2.2613 N   0  0  0  0  0  0  0  0  0  0  0  0
    3.1878    4.4520   -2.5897 C   0  0  0  0  0  0  0  0  0  0  0  0
    3.0837    3.1272   -2.1236 C   0  0  0  0  0  0  0  0  0  0  0  0
    1.9784    2.8261   -1.3334 C   0  0  0  0  0  0  0  0  0  0  0  0
    2.9248   -2.5195   -0.3373 C   0  0  0  0  0  0  0  0  0  0  0  0
    3.1999   -3.8760   -0.1370 C   0  0  0  0  0  0  0  0  0  0  0  0
    4.8562   -4.4421   -0.3297 Cl  0  0  0  0  0  0  0  0  0  0  0  0
  1  2  3  0
  2  3  1  0
  3  4  2  0
  4  5  1  0
  5  6  1  0
  6  7  2  0
  7  8  1  0
  8  9  1  0
  9 10  1  0
 10 11  1  0
 11 12  1  0
  8 13  2  0
 13 14  1  0
 14 15  2  0
 15 16  1  0
  5 17  2  0
 17 18  1  0
 18 19  1  0
 19 20  1  0
 20 21  2  0
 21 22  1  0
 22 23  1  0
 23 24  2  0
 24 25  1  0
 25 26  2  0
 26 27  1  0
 27 28  2  0
 17 29  1  0
 29 30  2  0
 30 31  1  0
 30  3  1  0
 15  6  1  0
 28 20  1  0
 12 10  1  0
 28 23  1  0
M  END
$$$$
