
     RDKit          3D

  5  4  0  0  0  0  0  0  0  0999 V2000
   -0.0149   -0.9242   -1.2145 O   0  0  0  0  0  0  0  0  0  0  0  0
   -0.0013   -0.0409    0.0005 S   0  0  0  0  0  6  0  0  0  0  0  0
   -0.0413   -0.8913    1.2383 O   0  0  0  0  0  0  0  0  0  0  0  0
    1.3993    0.8859    0.0032 O   0  0  0  0  0  1  0  0  0  0  0  0
   -1.3418    0.9704   -0.0275 O   0  0  0  0  0  1  0  0  0  0  0  0
  1  2  2  0
  2  3  2  0
  2  4  1  0
  2  5  1  0
M  CHG  2   4  -1   5  -1
M  END
$$$$
