
     RDKit          3D

  4  3  0  0  0  0  0  0  0  0999 V2000
   -0.6657   -0.0470   -0.0127 C   0  0  0  0  0  0  0  0  0  0  0  0
    0.8184    0.0967    0.0039 C   0  0  0  0  0  0  0  0  0  0  0  0
    1.3417    1.2259    0.1927 O   0  0  0  0  0  0  0  0  0  0  0  0
    1.6278   -1.0235   -0.1348 O   0  0  0  0  0  1  0  0  0  0  0  0
  1  2  1  0
  2  3  2  0
  2  4  1  0
M  CHG  1   4  -1
M  END
$$$$
