
     RDKit          3D

  4  3  0  0  0  0  0  0  0  0999 V2000
   -0.6672   -0.0193   -0.0024 C   0  0  0  0  0  0  0  0  0  0  0  0
    0.8217    0.0603   -0.0146 C   0  0  0  0  0  0  0  0  0  0  0  0
    1.3945    1.1813   -0.0061 O   0  0  0  0  0  0  0  0  0  0  0  0
    1.5813   -1.1020    0.0191 O   0  0  0  0  0  1  0  0  0  0  0  0
  1  2  1  0
  2  3  2  0
  2  4  1  0
M  CHG  1   4  -1
M  END
$$$$
