
     RDKit          3D

 18 19  0  0  0  0  0  0  0  0999 V2000
   -0.5818    3.9589    0.8956 C   0  0  0  0  0  0  0  0  0  0  0  0
   -0.7535    2.5015    0.5656 C   0  0  0  0  0  0  0  0  0  0  0  0
    0.3506    1.7443    0.1512 C   0  0  0  0  0  0  0  0  0  0  0  0
    0.2177    0.3844   -0.1707 C   0  0  0  0  0  0  0  0  0  0  0  0
    1.4127   -0.3325   -0.6631 C   0  0  0  0  0  0  0  0  0  0  0  0
    1.4736   -0.9323   -1.8738 N   0  0  0  0  0  0  0  0  0  0  0  0
    2.7014   -1.4149   -1.9890 N   0  0  0  0  0  0  0  0  0  0  0  0
    3.3671   -1.1018   -0.8669 C   0  0  0  0  0  0  0  0  0  0  0  0
    4.5734   -1.3995   -0.6578 O   0  0  0  0  0  0  0  0  0  0  0  0
    2.5894   -0.4289   -0.0013 N   0  0  0  0  0  0  0  0  0  0  0  0
    2.9607    0.1186    1.3010 C   0  0  0  0  0  0  0  0  0  0  0  0
   -1.0504   -0.2437   -0.0617 C   0  0  0  0  0  0  0  0  0  0  0  0
   -1.2470   -1.7301   -0.3492 C   0  0  0  0  0  0  0  0  0  0  0  0
   -1.9161   -2.4547    0.8277 C   0  0  0  0  0  0  0  0  0  0  0  0
   -2.0431   -1.9302   -1.6430 C   0  0  0  0  0  0  0  0  0  0  0  0
   -2.1583    0.5374    0.3224 C   0  0  0  0  0  0  0  0  0  0  0  0
   -2.0167    1.8910    0.6377 C   0  0  0  0  0  0  0  0  0  0  0  0
   -3.4485    2.7965    1.1183 Cl  0  0  0  0  0  0  0  0  0  0  0  0
  1  2  1  0
  2  3  2  0
  3  4  1  0
  4  5  1  0
  5  6  2  0
  6  7  1  0
  7  8  1  0
  8  9  2  0
  8 10  1  0
 10 11  1  0
  4 12  2  0
 12 13  1  0
 13 14  1  0
 13 15  1  0
 12 16  1  0
 16 17  2  0
 17 18  1  0
 17  2  1  0
 10  5  1  0
M  END
$$$$
