
     RDKit          3D

  4  3  0  0  0  0  0  0  0  0999 V2000
   -0.6671    0.0193   -0.0130 C   0  0  0  0  0  0  0  0  0  0  0  0
    0.8239    0.0144    0.0025 C   0  0  0  0  0  0  0  0  0  0  0  0
    1.4578    1.0933    0.1397 O   0  0  0  0  0  0  0  0  0  0  0  0
    1.5170   -1.1864   -0.0802 O   0  0  0  0  0  1  0  0  0  0  0  0
  1  2  1  0
  2  3  2  0
  2  4  1  0
M  CHG  1   4  -1
M  END
$$$$
