
     RDKit          3D

 24 26  0  0  0  0  0  0  0  0999 V2000
    2.7935   -0.4283   -1.6259 C   0  0  0  0  0  0  0  0  0  0  0  0
    3.2847    0.2117   -0.4086 N   0  0  0  0  0  0  0  0  0  0  0  0
    2.6417    1.0774    0.4083 C   0  0  0  0  0  0  0  0  0  0  0  0
    1.2066    1.4856    0.2704 C   0  0  0  0  0  0  0  0  0  0  0  0
    0.3215    0.4520    0.9088 C   0  0  0  0  0  0  0  0  0  0  0  0
    0.3590    0.3208    2.1630 O   0  0  0  0  0  0  0  0  0  0  0  0
   -0.5243   -0.4235    0.1316 N   0  0  0  0  0  0  0  0  0  0  0  0
   -1.1673    0.0408   -1.1104 C   0  0  0  0  0  0  0  0  0  0  0  0
   -1.9514    1.3097   -0.8823 C   0  0  0  0  0  0  0  0  0  0  0  0
   -1.7326    2.4364   -1.6937 C   0  0  0  0  0  0  0  0  0  0  0  0
   -2.4666    3.6080   -1.4870 C   0  0  0  0  0  0  0  0  0  0  0  0
   -3.4284    3.6624   -0.4753 C   0  0  0  0  0  0  0  0  0  0  0  0
   -3.6595    2.5442    0.3299 C   0  0  0  0  0  0  0  0  0  0  0  0
   -2.9282    1.3702    0.1262 C   0  0  0  0  0  0  0  0  0  0  0  0
   -0.6728   -1.7976    0.5482 C   0  0  0  0  0  0  0  0  0  0  0  0
   -1.9403   -2.4081    0.5843 C   0  0  0  0  0  0  0  0  0  0  0  0
   -2.0728   -3.7394    0.9906 C   0  0  0  0  0  0  0  0  0  0  0  0
   -0.9444   -4.4735    1.3658 C   0  0  0  0  0  0  0  0  0  0  0  0
    0.3188   -3.8772    1.3360 C   0  0  0  0  0  0  0  0  0  0  0  0
    0.4555   -2.5462    0.9305 C   0  0  0  0  0  0  0  0  0  0  0  0
    3.4356    1.4858    1.4237 N   0  0  0  0  0  0  0  0  0  0  0  0
    4.6062    0.8934    1.2423 N   0  0  0  0  0  0  0  0  0  0  0  0
    4.5103    0.1346    0.1396 C   0  0  0  0  0  0  0  0  0  0  0  0
    5.4554   -0.5606   -0.3207 O   0  0  0  0  0  0  0  0  0  0  0  0
  1  2  1  0
  2  3  1  0
  3  4  1  0
  4  5  1  0
  5  6  2  0
  5  7  1  0
  7  8  1  0
  8  9  1  0
  9 10  2  0
 10 11  1  0
 11 12  2  0
 12 13  1  0
 13 14  2  0
  7 15  1  0
 15 16  2  0
 16 17  1  0
 17 18  2  0
 18 19  1  0
 19 20  2  0
  3 21  2  0
 21 22  1  0
 22 23  1  0
 23 24  2  0
 23  2  1  0
 14  9  1  0
 20 15  1  0
M  END
$$$$
