
     RDKit          3D

 29 32  0  0  0  0  0  0  0  0999 V2000
   -3.4039    1.2953   -0.8846 O   0  0  0  0  0  0  0  0  0  0  0  0
   -3.6421    0.2579   -0.2068 C   0  0  0  0  0  0  0  0  0  0  0  0
   -4.9943   -0.1860   -0.0272 N   0  0  0  0  0  0  0  0  0  0  0  0
   -6.1209    0.5698   -0.5716 C   0  0  0  0  0  0  0  0  0  0  0  0
   -7.4153   -0.1167   -0.2640 C   0  0  0  0  0  0  0  0  0  0  0  0
   -8.1927    0.0361    0.8612 C   0  0  0  0  0  0  0  0  0  0  0  0
   -9.2161   -0.8362    0.7651 N   0  0  0  0  0  0  0  0  0  0  0  0
   -9.0576   -1.5009   -0.3716 N   0  0  0  0  0  0  0  0  0  0  0  0
   -7.9722   -1.0865   -1.0051 N   0  0  0  0  0  0  0  0  0  0  0  0
   -2.4981   -0.5402    0.3770 C   0  0  1  0  0  0  0  0  0  0  0  0
   -1.6570   -1.1977   -0.7246 C   0  0  0  0  0  0  0  0  0  0  0  0
   -0.3479   -0.3966   -0.8258 C   0  0  2  0  0  0  0  0  0  0  0  0
    0.9090   -1.1859   -0.4299 C   0  0  0  0  0  0  0  0  0  0  0  0
    1.6497   -0.3146    0.4644 N   0  0  0  0  0  0  0  0  0  0  0  0
    2.9684   -0.6075    0.9421 C   0  0  0  0  0  0  0  0  0  0  0  0
    3.5377   -1.6806    0.6003 O   0  0  0  0  0  0  0  0  0  0  0  0
    3.6172    0.3022    1.7862 O   0  0  0  0  0  0  0  0  0  0  0  0
    4.9598    0.1329    2.2347 C   0  0  0  0  0  0  0  0  0  0  0  0
    5.9222    0.3877    1.1072 C   0  0  0  0  0  0  0  0  0  0  0  0
    6.0573    1.6829    0.5828 C   0  0  0  0  0  0  0  0  0  0  0  0
    6.9327    1.9247   -0.4815 C   0  0  0  0  0  0  0  0  0  0  0  0
    7.0965    3.5464   -1.1315 Cl  0  0  0  0  0  0  0  0  0  0  0  0
    7.6742    0.8730   -1.0300 C   0  0  0  0  0  0  0  0  0  0  0  0
    7.5400   -0.4213   -0.5169 C   0  0  0  0  0  0  0  0  0  0  0  0
    8.4650   -1.7401   -1.2118 Cl  0  0  0  0  0  0  0  0  0  0  0  0
    6.6653   -0.6649    0.5476 C   0  0  0  0  0  0  0  0  0  0  0  0
    0.9377    0.9022    0.8059 C   0  0  0  0  0  0  0  0  0  0  0  0
   -0.4463    0.7568    0.1696 C   0  0  2  0  0  0  0  0  0  0  0  0
   -1.5341    0.3478    1.1630 C   0  0  0  0  0  0  0  0  0  0  0  0
  1  2  2  0
  2  3  1  0
  3  4  1  0
  4  5  1  0
  5  6  2  0
  6  7  1  0
  7  8  2  0
  8  9  1  0
 10  2  1  6
 10 11  1  0
 12 11  1  1
 12 13  1  0
 13 14  1  0
 14 15  1  0
 15 16  2  0
 15 17  1  0
 17 18  1  0
 18 19  1  0
 19 20  2  0
 20 21  1  0
 21 22  1  0
 21 23  2  0
 23 24  1  0
 24 25  1  0
 24 26  2  0
 14 27  1  0
 28 27  1  1
 28 29  1  0
  9  5  1  0
 29 10  1  0
 28 12  1  0
 26 19  1  0
M  END
$$$$
