
     RDKit          3D

 35 41  0  0  0  0  0  0  0  0999 V2000
    7.9209   -0.4254    2.2091 C   0  0  0  0  0  0  0  0  0  0  0  0
    7.5489   -0.3292    0.8383 O   0  0  0  0  0  0  0  0  0  0  0  0
    6.2250   -0.3710    0.3643 C   0  0  0  0  0  0  0  0  0  0  0  0
    5.1308   -0.4790    1.2448 C   0  0  0  0  0  0  0  0  0  0  0  0
    3.8118   -0.5042    0.7613 C   0  0  0  0  0  0  0  0  0  0  0  0
    2.6796   -0.6731    1.7031 C   0  0  0  0  0  0  0  0  0  0  0  0
    2.8694   -1.2238    2.8259 O   0  0  0  0  0  0  0  0  0  0  0  0
    1.3606   -0.2472    1.3490 N   0  0  0  0  0  0  0  0  0  0  0  0
    1.0477    1.1159    0.9547 C   0  0  0  0  0  0  0  0  0  0  0  0
   -0.4754    1.1755    0.8102 C   0  0  2  0  0  0  0  0  0  0  0  0
   -1.0124   -0.1939    1.2153 C   0  0  2  0  0  0  0  0  0  0  0  0
    0.1831   -1.0500    1.6276 C   0  0  0  0  0  0  0  0  0  0  0  0
   -1.5040   -0.4247   -0.2252 C   0  0  1  0  0  0  0  0  0  0  0  0
   -3.0256   -0.3975   -0.3693 C   0  0  0  0  0  0  0  0  0  0  0  0
   -3.3712    0.9731   -0.7161 N   0  0  0  0  0  0  0  0  0  0  0  0
   -4.7137    1.4063   -1.0024 C   0  0  0  0  0  0  0  0  0  0  0  0
   -4.9026    2.3799   -1.7823 O   0  0  0  0  0  0  0  0  0  0  0  0
   -5.8804    0.7424   -0.3939 C   0  0  0  0  0  0  0  0  0  0  0  0
   -5.9020    0.4660    1.0004 C   0  0  0  0  0  0  0  0  0  0  0  0
   -7.0119   -0.1680    1.5912 C   0  0  0  0  0  0  0  0  0  0  0  0
   -8.0802   -0.4838    0.7595 C   0  0  0  0  0  0  0  0  0  0  0  0
   -9.2353   -1.0989    1.0480 N   0  0  0  0  0  0  0  0  0  0  0  0
   -9.9078   -1.2062   -0.0951 N   0  0  0  0  0  0  0  0  0  0  0  0
   -9.2207   -0.6745   -1.1069 N   0  0  0  0  0  0  0  0  0  0  0  0
   -8.0738   -0.2173   -0.5701 C   0  0  0  0  0  0  0  0  0  0  0  0
   -6.9966    0.4045   -1.1940 C   0  0  0  0  0  0  0  0  0  0  0  0
   -2.2089    1.7983   -1.0025 C   0  0  0  0  0  0  0  0  0  0  0  0
   -0.9883    0.9535   -0.6248 C   0  0  1  0  0  0  0  0  0  0  0  0
    3.5844   -0.4371   -0.6198 C   0  0  0  0  0  0  0  0  0  0  0  0
    4.6577   -0.3423   -1.5151 C   0  0  0  0  0  0  0  0  0  0  0  0
    4.4228   -0.3008   -2.8965 C   0  0  0  0  0  0  0  0  0  0  0  0
    5.4932   -0.2184   -3.7902 C   0  0  0  0  0  0  0  0  0  0  0  0
    6.8030   -0.1819   -3.3129 C   0  0  0  0  0  0  0  0  0  0  0  0
    7.0532   -0.2205   -1.9383 C   0  0  0  0  0  0  0  0  0  0  0  0
    5.9872   -0.3056   -1.0234 C   0  0  0  0  0  0  0  0  0  0  0  0
  1  2  1  0
  2  3  1  0
  3  4  2  0
  4  5  1  0
  5  6  1  0
  6  7  2  0
  6  8  1  0
  8  9  1  0
 10  9  1  6
 10 11  1  0
 11 12  1  6
 11 13  1  0
 13 14  1  1
 14 15  1  0
 15 16  1  0
 16 17  2  0
 16 18  1  0
 18 19  2  0
 19 20  1  0
 20 21  2  0
 21 22  1  0
 22 23  1  0
 23 24  2  0
 24 25  1  0
 25 26  2  0
 15 27  1  0
 28 27  1  1
  5 29  2  0
 29 30  1  0
 30 31  2  0
 31 32  1  0
 32 33  2  0
 33 34  1  0
 34 35  2  0
 35  3  1  0
 12  8  1  0
 28 13  1  0
 35 30  1  0
 28 10  1  0
 26 18  1  0
 25 21  1  0
M  END
$$$$
