
     RDKit          3D

 29 33  0  0  0  0  0  0  0  0999 V2000
   -7.9745   -0.2211   -0.9521 N   0  0  0  0  0  0  0  0  0  0  0  0
   -7.1165    0.5499   -0.8598 C   0  0  0  0  0  0  0  0  0  0  0  0
   -6.0480    1.5095   -0.7449 C   0  0  0  0  0  0  0  0  0  0  0  0
   -6.2536    2.8464   -1.1299 C   0  0  0  0  0  0  0  0  0  0  0  0
   -5.2061    3.7805   -1.0326 C   0  0  0  0  0  0  0  0  0  0  0  0
   -5.4668    5.4443   -1.5219 Cl  0  0  0  0  0  0  0  0  0  0  0  0
   -3.9496    3.3820   -0.5506 C   0  0  0  0  0  0  0  0  0  0  0  0
   -3.7665    2.0513   -0.1665 C   0  0  0  0  0  0  0  0  0  0  0  0
   -4.7864    1.1353   -0.2595 C   0  0  0  0  0  0  0  0  0  0  0  0
   -4.3450   -0.2218    0.1509 C   0  0  0  0  0  0  0  0  0  0  0  0
   -2.9203    0.0056    0.7150 C   0  0  1  0  0  0  0  0  0  0  0  0
   -1.9594   -0.9792    0.2042 N   0  0  0  0  0  0  0  0  0  0  0  0
   -0.6181   -1.0637    0.7011 C   0  0  0  0  0  0  0  0  0  0  0  0
   -0.2098   -0.2735    1.7436 N   0  0  0  0  0  0  0  0  0  0  0  0
    1.0669   -0.3319    2.2170 C   0  0  0  0  0  0  0  0  0  0  0  0
    1.9528   -1.2204    1.6192 C   0  0  0  0  0  0  0  0  0  0  0  0
    1.5321   -1.9976    0.5903 C   0  0  0  0  0  0  0  0  0  0  0  0
    0.2631   -1.9288    0.1179 N   0  0  0  0  0  0  0  0  0  0  0  0
    2.6378   -2.8185    0.0611 C   0  0  0  0  0  0  0  0  0  0  0  0
    3.7778   -2.5343    0.9610 N   0  0  0  0  0  0  0  0  0  0  0  0
    5.2731   -2.2304    0.1013 S   0  0  0  0  0  6  0  0  0  0  0  0
    5.4985   -3.3789   -0.8417 O   0  0  0  0  0  0  0  0  0  0  0  0
    6.3941   -2.2388    1.1034 O   0  0  0  0  0  0  0  0  0  0  0  0
    5.4000   -0.7141   -0.8835 C   0  0  0  0  0  0  0  0  0  0  0  0
    5.8712    0.4960   -0.1075 C   0  0  0  0  0  0  0  0  0  0  0  0
    4.6770    1.2008   -0.3474 O   0  0  0  0  0  0  0  0  0  0  0  0
    4.1556    0.1203   -1.0851 C   0  0  0  0  0  0  0  0  0  0  0  0
    3.3873   -1.4503    1.8896 C   0  0  0  0  0  0  0  0  0  0  0  0
   -2.5084    1.4429    0.3219 C   0  0  0  0  0  0  0  0  0  0  0  0
  1  2  3  0
  2  3  1  0
  3  4  2  0
  4  5  1  0
  5  6  1  0
  5  7  2  0
  7  8  1  0
  8  9  2  0
  9 10  1  0
 10 11  1  0
 11 12  1  6
 12 13  1  0
 13 14  2  0
 14 15  1  0
 15 16  2  0
 16 17  1  0
 17 18  2  0
 17 19  1  0
 19 20  1  0
 20 21  1  0
 21 22  2  0
 21 23  2  0
 21 24  1  0
 24 25  1  0
 25 26  1  0
 26 27  1  0
 20 28  1  0
 11 29  1  0
  9  3  1  0
 18 13  1  0
 27 24  1  0
 29  8  1  0
 28 16  1  0
M  END
$$$$
