
     RDKit          3D

 14 14  0  0  0  0  0  0  0  0999 V2000
    3.4051   -0.1038    1.2864 C   0  0  0  0  0  0  0  0  0  0  0  0
    2.8116    0.1467   -0.0971 C   0  0  2  0  0  0  0  0  0  0  0  0
    3.5044    1.1995   -0.7149 O   0  0  0  0  0  0  0  0  0  0  0  0
    1.3496    0.4824    0.0221 C   0  0  0  0  0  0  0  0  0  0  0  0
    1.0035    1.6665    0.2856 O   0  0  0  0  0  0  0  0  0  0  0  0
    0.3667   -0.5611   -0.0690 N   0  0  0  0  0  0  0  0  0  0  0  0
   -1.0493   -0.3283   -0.1608 C   0  0  0  0  0  0  0  0  0  0  0  0
   -1.5678    0.7786   -0.8581 C   0  0  0  0  0  0  0  0  0  0  0  0
   -2.9511    0.9694   -0.9516 C   0  0  0  0  0  0  0  0  0  0  0  0
   -3.5887    2.3539   -1.8200 Cl  0  0  0  0  0  0  0  0  0  0  0  0
   -3.8258    0.0513   -0.3626 C   0  0  0  0  0  0  0  0  0  0  0  0
   -3.3195   -1.0633    0.3126 C   0  0  0  0  0  0  0  0  0  0  0  0
   -4.4180   -2.2217    1.0396 Cl  0  0  0  0  0  0  0  0  0  0  0  0
   -1.9368   -1.2560    0.4064 C   0  0  0  0  0  0  0  0  0  0  0  0
  2  1  1  1
  2  3  1  0
  2  4  1  0
  4  5  2  0
  4  6  1  0
  6  7  1  0
  7  8  2  0
  8  9  1  0
  9 10  1  0
  9 11  2  0
 11 12  1  0
 12 13  1  0
 12 14  2  0
 14  7  1  0
M  END
$$$$
