
     RDKit          3D

  4  3  0  0  0  0  0  0  0  0999 V2000
   -1.4268   -0.1485    0.0195 C   0  0  0  0  0  0  0  0  0  0  0  0
    0.0128    0.7563    0.6156 S   0  0  0  0  0  4  0  0  0  0  0  0
    1.4125   -0.2401    0.0732 C   0  0  0  0  0  0  0  0  0  0  0  0
    0.0693    1.9765   -0.2937 O   0  0  0  0  0  0  0  0  0  0  0  0
  1  2  1  0
  2  3  1  0
  2  4  2  0
M  END
$$$$
