
     RDKit          3D

 25 28  0  0  0  0  0  0  0  0999 V2000
    4.9984    1.2987    0.0848 N   0  0  0  0  0  4  0  0  0  0  0  0
    5.0513   -0.1111   -0.2973 C   0  0  0  0  0  0  0  0  0  0  0  0
    3.7319   -0.5578   -0.8459 C   0  0  0  0  0  0  0  0  0  0  0  0
    3.4045   -0.4869   -2.1558 N   0  0  0  0  0  0  0  0  0  0  0  0
    2.1334   -0.9330   -2.1554 C   0  0  0  0  0  0  0  0  0  0  0  0
    1.7224   -1.2299   -0.9110 N   0  0  0  0  0  0  0  0  0  0  0  0
    0.4238   -1.7735   -0.5259 C   0  0  0  0  0  0  0  0  0  0  0  0
   -0.1376   -1.0157    0.6417 C   0  0  0  0  0  0  0  0  0  0  0  0
   -0.1929   -1.5513    1.8894 N   0  0  0  0  0  0  0  0  0  0  0  0
   -0.7256   -0.5586    2.6234 C   0  0  0  0  0  0  0  0  0  0  0  0
   -1.0114   -0.5755    3.9863 C   0  0  0  0  0  0  0  0  0  0  0  0
   -1.5772    0.5827    4.5529 C   0  0  0  0  0  0  0  0  0  0  0  0
   -1.9597    0.6186    6.2641 Cl  0  0  0  0  0  0  0  0  0  0  0  0
   -1.8394    1.7156    3.7485 C   0  0  0  0  0  0  0  0  0  0  0  0
   -1.5367    1.7008    2.3744 C   0  0  0  0  0  0  0  0  0  0  0  0
   -0.9754    0.5348    1.8451 C   0  0  0  0  0  0  0  0  0  0  0  0
   -0.5986    0.2651    0.5815 N   0  0  0  0  0  0  0  0  0  0  0  0
   -0.7036    1.1326   -0.5971 C   0  0  0  0  0  0  0  0  0  0  0  0
   -1.9102    0.7661   -1.4206 C   0  0  0  0  0  0  0  0  0  0  0  0
   -1.7598    0.2926   -2.7356 C   0  0  0  0  0  0  0  0  0  0  0  0
   -2.8831   -0.0487   -3.4950 C   0  0  0  0  0  0  0  0  0  0  0  0
   -4.1633    0.0849   -2.9513 C   0  0  0  0  0  0  0  0  0  0  0  0
   -4.3223    0.5627   -1.6478 C   0  0  0  0  0  0  0  0  0  0  0  0
   -3.2017    0.9045   -0.8847 C   0  0  0  0  0  0  0  0  0  0  0  0
    2.7203   -1.0044   -0.0765 N   0  0  0  0  0  0  0  0  0  0  0  0
  1  2  1  0
  2  3  1  0
  3  4  1  0
  4  5  2  0
  5  6  1  0
  6  7  1  0
  7  8  1  0
  8  9  2  0
  9 10  1  0
 10 11  2  0
 11 12  1  0
 12 13  1  0
 12 14  2  0
 14 15  1  0
 15 16  2  0
 16 17  1  0
 17 18  1  0
 18 19  1  0
 19 20  2  0
 20 21  1  0
 21 22  2  0
 22 23  1  0
 23 24  2  0
  6 25  1  0
 25  3  2  0
 17  8  1  0
 24 19  1  0
 16 10  1  0
M  CHG  1   1   1
M  END
$$$$
