
     RDKit          3D

 14 14  0  0  0  0  0  0  0  0999 V2000
   -3.5878    0.4670    0.2764 C   0  0  0  0  0  0  0  0  0  0  0  0
   -2.7124   -0.5807   -0.4176 C   0  0  2  0  0  0  0  0  0  0  0  0
   -3.2568   -1.8696   -0.2752 O   0  0  0  0  0  0  0  0  0  0  0  0
   -1.3013   -0.5307    0.1078 C   0  0  0  0  0  0  0  0  0  0  0  0
   -1.0120   -1.1321    1.1783 O   0  0  0  0  0  0  0  0  0  0  0  0
   -0.3204    0.2810   -0.5575 N   0  0  0  0  0  0  0  0  0  0  0  0
    1.0863    0.2502   -0.2605 C   0  0  0  0  0  0  0  0  0  0  0  0
    1.8446    1.4229   -0.4013 C   0  0  0  0  0  0  0  0  0  0  0  0
    3.2189    1.4144   -0.1386 C   0  0  0  0  0  0  0  0  0  0  0  0
    4.1525    2.8904   -0.3029 Cl  0  0  0  0  0  0  0  0  0  0  0  0
    3.8486    0.2291    0.2525 C   0  0  0  0  0  0  0  0  0  0  0  0
    3.1071   -0.9501    0.3731 C   0  0  0  0  0  0  0  0  0  0  0  0
    3.9037   -2.4419    0.8397 Cl  0  0  0  0  0  0  0  0  0  0  0  0
    1.7323   -0.9434    0.1116 C   0  0  0  0  0  0  0  0  0  0  0  0
  2  1  1  1
  2  3  1  0
  2  4  1  0
  4  5  2  0
  4  6  1  0
  6  7  1  0
  7  8  2  0
  8  9  1  0
  9 10  1  0
  9 11  2  0
 11 12  1  0
 12 13  1  0
 12 14  2  0
 14  7  1  0
M  END
$$$$
