
     RDKit          3D

  4  3  0  0  0  0  0  0  0  0999 V2000
    1.3197   -0.1876   -0.5305 C   0  0  0  0  0  0  0  0  0  0  0  0
    0.2974    0.4866    0.7911 S   0  0  0  0  0  4  0  0  0  0  0  0
   -1.3355   -0.2087    0.4807 C   0  0  0  0  0  0  0  0  0  0  0  0
    0.1401    1.9522    0.4086 O   0  0  0  0  0  0  0  0  0  0  0  0
  1  2  1  0
  2  3  1  0
  2  4  2  0
M  END
$$$$
