
     RDKit          3D

 28 30  0  0  0  0  0  0  0  0999 V2000
   -5.8694    3.3918   -1.7442 C   0  0  0  0  0  0  0  0  0  0  0  0
   -5.0146    4.1857   -0.7587 C   0  0  0  0  0  0  0  0  0  0  0  0
   -3.5752    3.6740   -0.7156 C   0  0  0  0  0  0  0  0  0  0  0  0
   -3.5488    2.3368   -0.2210 O   0  0  0  0  0  0  0  0  0  0  0  0
   -2.3848    1.5700   -0.0567 C   0  0  0  0  0  0  0  0  0  0  0  0
   -1.1079    2.0755   -0.3627 C   0  0  0  0  0  0  0  0  0  0  0  0
    0.0272    1.2835   -0.1844 C   0  0  0  0  0  0  0  0  0  0  0  0
   -0.0898   -0.0219    0.3175 C   0  0  0  0  0  0  0  0  0  0  0  0
    1.0632   -0.8641    0.4878 N   0  0  0  0  0  0  0  0  0  0  0  0
    2.3615   -0.3786    0.8640 C   0  0  0  0  0  0  0  0  0  0  0  0
    2.4915    0.7733    1.3630 O   0  0  0  0  0  0  0  0  0  0  0  0
    3.5724   -1.2701    0.7231 C   0  0  2  0  0  0  0  0  0  0  0  0
    4.0389   -1.7007    2.1284 C   0  0  0  0  0  0  0  0  0  0  0  0
    5.3483   -2.4227    2.0635 C   0  0  0  0  0  0  0  0  0  0  0  0
    5.6010   -3.3521    2.8754 O   0  0  0  0  0  0  0  0  0  0  0  0
    6.3431   -1.9961    1.1314 N   0  0  0  0  0  0  0  0  0  0  0  0
    6.0310   -1.0215    0.1267 C   0  0  0  0  0  0  0  0  0  0  0  0
    7.0572   -0.4918   -0.6693 C   0  0  0  0  0  0  0  0  0  0  0  0
    6.7634    0.4231   -1.6814 C   0  0  0  0  0  0  0  0  0  0  0  0
    5.4419    0.8004   -1.9199 C   0  0  0  0  0  0  0  0  0  0  0  0
    4.4098    0.2745   -1.1390 C   0  0  0  0  0  0  0  0  0  0  0  0
    4.6922   -0.6135   -0.0799 C   0  0  0  0  0  0  0  0  0  0  0  0
   -1.3630   -0.5339    0.6024 C   0  0  0  0  0  0  0  0  0  0  0  0
   -2.5153    0.2573    0.4219 C   0  0  0  0  0  0  0  0  0  0  0  0
   -3.8078   -0.2153    0.7097 O   0  0  0  0  0  0  0  0  0  0  0  0
   -4.1424   -1.5498    1.0913 C   0  0  0  0  0  0  0  0  0  0  0  0
   -4.0920   -2.4857   -0.1203 C   0  0  0  0  0  0  0  0  0  0  0  0
   -4.4624   -3.9131    0.2698 C   0  0  0  0  0  0  0  0  0  0  0  0
  1  2  1  0
  2  3  1  0
  3  4  1  0
  4  5  1  0
  5  6  2  0
  6  7  1  0
  7  8  2  0
  8  9  1  0
  9 10  1  0
 10 11  2  0
 12 10  1  1
 12 13  1  0
 13 14  1  0
 14 15  2  0
 14 16  1  0
 16 17  1  0
 17 18  2  0
 18 19  1  0
 19 20  2  0
 20 21  1  0
 21 22  2  0
  8 23  1  0
 23 24  2  0
 24 25  1  0
 25 26  1  0
 26 27  1  0
 27 28  1  0
 24  5  1  0
 22 12  1  0
 22 17  1  0
M  END
$$$$
