
     RDKit          3D

  8  8  0  0  0  0  0  0  0  0999 V2000
   -1.7908    0.8549   -0.1451 C   0  0  0  0  0  0  0  0  0  0  0  0
   -1.0940   -0.4513    0.2487 C   0  0  1  0  0  0  0  0  0  0  0  0
   -1.4025   -1.4816   -0.6563 O   0  0  0  0  0  0  0  0  0  0  0  0
    0.3964   -0.2619    0.3533 C   0  0  0  0  0  0  0  0  0  0  0  0
    1.2671    0.0255   -0.6794 C   0  0  0  0  0  0  0  0  0  0  0  0
    2.5012    0.1258   -0.0675 C   0  0  0  0  0  0  0  0  0  0  0  0
    2.3693   -0.0862    1.2570 N   0  0  0  0  0  0  0  0  0  0  0  0
    1.0906   -0.3188    1.5039 N   0  0  0  0  0  0  0  0  0  0  0  0
  2  1  1  6
  2  3  1  0
  2  4  1  0
  4  5  2  0
  5  6  1  0
  6  7  2  0
  7  8  1  0
  8  4  1  0
M  END
$$$$
