
     RDKit          3D

 16 17  0  0  0  0  0  0  0  0999 V2000
    2.4992   -2.2237   -1.6495 N   0  0  0  0  0  0  0  0  0  0  0  0
    3.2774   -1.5305   -0.8829 C   0  0  0  0  0  0  0  0  0  0  0  0
    2.7339   -0.6017    0.1226 C   0  0  0  0  0  0  0  0  0  0  0  0
    1.3533   -0.4335    0.3047 C   0  0  0  0  0  0  0  0  0  0  0  0
    0.9061    0.4756    1.2759 C   0  0  0  0  0  0  0  0  0  0  0  0
   -0.4581    0.6830    1.5246 O   0  0  0  0  0  0  0  0  0  0  0  0
   -1.4828    0.5880    0.5712 C   0  0  0  0  0  0  0  0  0  0  0  0
   -2.7603    0.1993    0.9931 C   0  0  0  0  0  0  0  0  0  0  0  0
   -3.8110    0.1065    0.0750 C   0  0  0  0  0  0  0  0  0  0  0  0
   -3.5944    0.4148   -1.2716 C   0  0  0  0  0  0  0  0  0  0  0  0
   -5.1801    0.2764   -2.6551 I   0  0  0  0  0  0  0  0  0  0  0  0
   -2.3269    0.8236   -1.6980 C   0  0  0  0  0  0  0  0  0  0  0  0
   -1.2750    0.9168   -0.7815 C   0  0  0  0  0  0  0  0  0  0  0  0
    1.8169    1.1426    2.0315 N   0  0  0  0  0  0  0  0  0  0  0  0
    3.1504    0.9671    1.8461 C   0  0  0  0  0  0  0  0  0  0  0  0
    3.5984    0.1047    0.8979 N   0  0  0  0  0  0  0  0  0  0  0  0
  1  2  2  0
  2  3  1  0
  3  4  2  0
  4  5  1  0
  5  6  1  0
  6  7  1  0
  7  8  2  0
  8  9  1  0
  9 10  2  0
 10 11  1  0
 10 12  1  0
 12 13  2  0
  5 14  2  0
 14 15  1  0
 15 16  2  0
 16  3  1  0
 13  7  1  0
M  END
$$$$
