
     RDKit          3D

 26 29  0  0  0  0  0  0  0  0999 V2000
   -2.2397   -1.6373    2.7762 O   0  0  0  0  0  0  0  0  0  0  0  0
   -2.5532   -0.6966    1.9974 C   0  0  0  0  0  0  0  0  0  0  0  0
   -1.6555    0.5002    1.8585 C   0  0  0  0  0  0  0  0  0  0  0  0
   -1.7154    1.0823    0.4318 C   0  0  1  0  0  0  0  0  0  0  0  0
   -0.9154    0.2312   -0.5247 C   0  0  0  0  0  0  0  0  0  0  0  0
   -1.4306   -0.8087   -1.0254 O   0  0  0  0  0  0  0  0  0  0  0  0
    0.4463    0.5754   -0.8202 N   0  0  0  0  0  0  0  0  0  0  0  0
    1.2855   -0.2077   -1.7275 C   0  0  0  0  0  0  0  0  0  0  0  0
    1.6684   -1.5643   -1.1162 C   0  0  0  0  0  0  0  0  0  0  0  0
    2.2974   -1.4123    0.2436 C   0  0  0  0  0  0  0  0  0  0  0  0
    1.5847   -1.6290    1.4258 C   0  0  0  0  0  0  0  0  0  0  0  0
    2.5883   -1.3082    2.7459 S   0  0  0  0  0  0  0  0  0  0  0  0
    3.9294   -0.8944    1.8281 C   0  0  0  0  0  0  0  0  0  0  0  0
    5.1864   -0.5004    2.2771 C   0  0  0  0  0  0  0  0  0  0  0  0
    6.1668   -0.1973    1.3217 C   0  0  0  0  0  0  0  0  0  0  0  0
    5.8748   -0.2931   -0.0504 C   0  0  0  0  0  0  0  0  0  0  0  0
    4.5993   -0.6934   -0.4805 C   0  0  0  0  0  0  0  0  0  0  0  0
    3.6228   -0.9954    0.4786 C   0  0  0  0  0  0  0  0  0  0  0  0
   -3.1465    1.2276   -0.0536 C   0  0  0  0  0  0  0  0  0  0  0  0
   -3.4793    2.2254   -0.9851 C   0  0  0  0  0  0  0  0  0  0  0  0
   -4.7799    2.3111   -1.4924 C   0  0  0  0  0  0  0  0  0  0  0  0
   -5.7540    1.3936   -1.0877 C   0  0  0  0  0  0  0  0  0  0  0  0
   -7.0129    1.4776   -1.5876 F   0  0  0  0  0  0  0  0  0  0  0  0
   -5.4310    0.3877   -0.1713 C   0  0  0  0  0  0  0  0  0  0  0  0
   -4.1313    0.2990    0.3510 C   0  0  0  0  0  0  0  0  0  0  0  0
   -3.8018   -0.7297    1.2967 N   0  0  0  0  0  0  0  0  0  0  0  0
  1  2  2  0
  2  3  1  0
  3  4  1  0
  4  5  1  6
  5  6  2  0
  5  7  1  0
  7  8  1  0
  8  9  1  0
  9 10  1  0
 10 11  2  0
 11 12  1  0
 12 13  1  0
 13 14  2  0
 14 15  1  0
 15 16  2  0
 16 17  1  0
 17 18  2  0
  4 19  1  0
 19 20  2  0
 20 21  1  0
 21 22  2  0
 22 23  1  0
 22 24  1  0
 24 25  2  0
 25 26  1  0
 26  2  1  0
 18 10  1  0
 25 19  1  0
 18 13  1  0
M  END
$$$$
