
     RDKit          3D

 13 12  0  0  0  0  0  0  0  0999 V2000
   -5.9668   -0.7689    0.9334 O   0  0  0  0  0  0  0  0  0  0  0  0
   -5.2367   -0.3771   -0.1978 C   0  0  0  0  0  0  0  0  0  0  0  0
   -4.2338    0.7209    0.1641 C   0  0  0  0  0  0  0  0  0  0  0  0
   -3.3109    0.2588    1.1340 O   0  0  0  0  0  0  0  0  0  0  0  0
   -2.1532   -0.2870    0.5283 C   0  0  0  0  0  0  0  0  0  0  0  0
   -1.0560    0.7750    0.4293 C   0  0  0  0  0  0  0  0  0  0  0  0
    0.0947    0.2309   -0.1897 O   0  0  0  0  0  0  0  0  0  0  0  0
    1.0435   -0.1600    0.7817 C   0  0  0  0  0  0  0  0  0  0  0  0
    2.2058   -0.8678    0.0974 C   0  0  0  0  0  0  0  0  0  0  0  0
    2.8299    0.0201   -0.8063 O   0  0  0  0  0  0  0  0  0  0  0  0
    3.9575   -0.5889   -1.4100 C   0  0  0  0  0  0  0  0  0  0  0  0
    5.2306    0.1209   -0.9618 C   0  0  0  0  0  0  0  0  0  0  0  0
    5.4191   -0.0621    0.4136 O   0  0  0  0  0  0  0  0  0  0  0  0
  1  2  1  0
  2  3  1  0
  3  4  1  0
  4  5  1  0
  5  6  1  0
  6  7  1  0
  7  8  1  0
  8  9  1  0
  9 10  1  0
 10 11  1  0
 11 12  1  0
 12 13  1  0
M  END
$$$$
