
     RDKit          3D

  4  3  0  0  0  0  0  0  0  0999 V2000
    1.4289    0.1269    0.0160 C   0  0  0  0  0  0  0  0  0  0  0  0
   -0.1352    0.4832    0.8362 S   0  0  0  0  0  4  0  0  0  0  0  0
   -1.3827    0.0283   -0.3815 C   0  0  0  0  0  0  0  0  0  0  0  0
   -0.2452   -0.6133    1.8871 O   0  0  0  0  0  0  0  0  0  0  0  0
  1  2  1  0
  2  3  1  0
  2  4  2  0
M  END
$$$$
