
     RDKit          3D

 18 20  0  0  0  0  0  0  0  0999 V2000
    2.8670   -0.3988   -3.7324 C   0  0  0  0  0  0  0  0  0  0  0  0
    1.8435    1.1021   -3.8253 S   0  0  0  0  0  0  0  0  0  0  0  0
    1.5055    1.1151   -2.0687 C   0  0  0  0  0  0  0  0  0  0  0  0
    2.2858    1.7564   -1.1669 N   0  0  0  0  0  0  0  0  0  0  0  0
    1.7923    1.5997    0.0870 C   0  0  0  0  0  0  0  0  0  0  0  0
    2.3727    2.1341    1.1890 N   0  0  0  0  0  0  0  0  0  0  0  0
    1.8072    1.9256    2.4119 C   0  0  0  0  0  0  0  0  0  0  0  0
    0.6650    1.1848    2.5297 N   0  0  0  0  0  0  0  0  0  0  0  0
    0.0510    0.6303    1.4433 C   0  0  0  0  0  0  0  0  0  0  0  0
   -1.1498   -0.1427    1.6146 N   0  0  0  0  0  0  0  0  0  0  0  0
   -1.7777   -0.3989    2.7768 C   0  0  0  0  0  0  0  0  0  0  0  0
   -2.8766   -1.1550    2.5854 N   0  0  0  0  0  0  0  0  0  0  0  0
   -2.8700   -1.3356    1.2470 C   0  0  0  0  0  0  0  0  0  0  0  0
   -3.8940   -2.1138    0.5362 C   0  0  0  0  0  0  0  0  0  0  0  0
   -3.8608   -2.2697   -0.7489 N   0  0  0  0  0  0  0  0  0  0  0  0
   -1.8291   -0.7277    0.6449 N   0  0  0  0  0  0  0  0  0  0  0  0
    0.6362    0.8479    0.1905 C   0  0  0  0  0  0  0  0  0  0  0  0
    0.1848    0.3405   -1.3497 S   0  0  0  0  0  0  0  0  0  0  0  0
  1  2  1  0
  2  3  1  0
  3  4  2  0
  4  5  1  0
  5  6  2  0
  6  7  1  0
  7  8  2  0
  8  9  1  0
  9 10  1  0
 10 11  1  0
 11 12  2  0
 12 13  1  0
 13 14  1  0
 14 15  2  0
 13 16  2  0
  9 17  2  0
 17 18  1  0
 18  3  1  0
 17  5  1  0
 16 10  1  0
M  END
$$$$
