
     RDKit          3D

  8  8  0  0  0  0  0  0  0  0999 V2000
   -1.7524   -0.3399    0.7394 C   0  0  0  0  0  0  0  0  0  0  0  0
   -0.9925    0.1326   -0.5008 C   0  0  2  0  0  0  0  0  0  0  0  0
   -1.1678   -0.7809   -1.5517 O   0  0  0  0  0  0  0  0  0  0  0  0
    0.4706    0.2634   -0.1907 C   0  0  0  0  0  0  0  0  0  0  0  0
    1.3893   -0.7639   -0.1112 C   0  0  0  0  0  0  0  0  0  0  0  0
    2.5628   -0.1430    0.2700 C   0  0  0  0  0  0  0  0  0  0  0  0
    2.3480    1.1792    0.4208 N   0  0  0  0  0  0  0  0  0  0  0  0
    1.0763    1.4165    0.1442 N   0  0  0  0  0  0  0  0  0  0  0  0
  2  1  1  1
  2  3  1  0
  2  4  1  0
  4  5  2  0
  5  6  1  0
  6  7  2  0
  7  8  1  0
  8  4  1  0
M  END
$$$$
