
     RDKit          3D

 28 30  0  0  0  0  0  0  0  0999 V2000
   -6.7741    2.3090   -0.6627 C   0  0  0  0  0  0  0  0  0  0  0  0
   -6.3844    2.1467    0.8049 C   0  0  0  0  0  0  0  0  0  0  0  0
   -4.8841    2.3437    1.0190 C   0  0  0  0  0  0  0  0  0  0  0  0
   -4.1571    1.3228    0.3388 O   0  0  0  0  0  0  0  0  0  0  0  0
   -2.7582    1.2088    0.3331 C   0  0  0  0  0  0  0  0  0  0  0  0
   -1.9321    2.1131    1.0259 C   0  0  0  0  0  0  0  0  0  0  0  0
   -0.5446    1.9648    1.0009 C   0  0  0  0  0  0  0  0  0  0  0  0
    0.0425    0.9059    0.2925 C   0  0  0  0  0  0  0  0  0  0  0  0
    1.4694    0.7461    0.2333 N   0  0  0  0  0  0  0  0  0  0  0  0
    2.3522    0.9938    1.3413 C   0  0  0  0  0  0  0  0  0  0  0  0
    1.8870    1.2321    2.4889 O   0  0  0  0  0  0  0  0  0  0  0  0
    3.8494    0.9305    1.1523 C   0  0  2  0  0  0  0  0  0  0  0  0
    4.2879    2.0924    0.2381 C   0  0  0  0  0  0  0  0  0  0  0  0
    5.7328    1.9686   -0.1322 C   0  0  0  0  0  0  0  0  0  0  0  0
    6.4357    3.0008   -0.2981 O   0  0  0  0  0  0  0  0  0  0  0  0
    6.2892    0.6763   -0.3790 N   0  0  0  0  0  0  0  0  0  0  0  0
    5.5369   -0.5094   -0.0879 C   0  0  0  0  0  0  0  0  0  0  0  0
    6.0235   -1.7591   -0.4985 C   0  0  0  0  0  0  0  0  0  0  0  0
    5.3221   -2.9252   -0.1887 C   0  0  0  0  0  0  0  0  0  0  0  0
    4.1410   -2.8545    0.5501 C   0  0  0  0  0  0  0  0  0  0  0  0
    3.6502   -1.6168    0.9726 C   0  0  0  0  0  0  0  0  0  0  0  0
    4.3201   -0.4239    0.6287 C   0  0  0  0  0  0  0  0  0  0  0  0
   -0.7772    0.0198   -0.4191 C   0  0  0  0  0  0  0  0  0  0  0  0
   -2.1795    0.1565   -0.3930 C   0  0  0  0  0  0  0  0  0  0  0  0
   -3.0356   -0.7228   -1.0792 O   0  0  0  0  0  0  0  0  0  0  0  0
   -2.6350   -1.9053   -1.7719 C   0  0  0  0  0  0  0  0  0  0  0  0
   -2.3069   -3.0264   -0.7808 C   0  0  0  0  0  0  0  0  0  0  0  0
   -1.8835   -4.2987   -1.5080 C   0  0  0  0  0  0  0  0  0  0  0  0
  1  2  1  0
  2  3  1  0
  3  4  1  0
  4  5  1  0
  5  6  2  0
  6  7  1  0
  7  8  2  0
  8  9  1  0
  9 10  1  0
 10 11  2  0
 12 10  1  6
 12 13  1  0
 13 14  1  0
 14 15  2  0
 14 16  1  0
 16 17  1  0
 17 18  2  0
 18 19  1  0
 19 20  2  0
 20 21  1  0
 21 22  2  0
  8 23  1  0
 23 24  2  0
 24 25  1  0
 25 26  1  0
 26 27  1  0
 27 28  1  0
 24  5  1  0
 22 12  1  0
 22 17  1  0
M  END
$$$$
