
     RDKit          3D

 24 27  0  0  0  0  0  0  0  0999 V2000
    0.6335   -0.9794   -1.7420 O   0  0  0  0  0  0  0  0  0  0  0  0
    0.3828   -0.3572   -0.6746 C   0  0  0  0  0  0  0  0  0  0  0  0
   -0.9709   -0.2308   -0.2173 N   0  0  0  0  0  0  0  0  0  0  0  0
   -2.1062   -0.8300   -0.9290 C   0  0  1  0  0  0  0  0  0  0  0  0
   -2.2384   -2.3092   -0.5287 C   0  0  0  0  0  0  0  0  0  0  0  0
   -2.8801   -2.4701    0.8443 C   0  0  0  0  0  0  0  0  0  0  0  0
   -4.6474   -2.1095    0.6886 S   0  0  0  0  0  0  0  0  0  0  0  0
   -4.4314   -0.4082    0.1353 C   0  0  0  0  0  0  0  0  0  0  0  0
   -5.4397    0.5044    0.4743 C   0  0  0  0  0  0  0  0  0  0  0  0
   -5.4116    1.8100   -0.0168 C   0  0  0  0  0  0  0  0  0  0  0  0
   -4.3736    2.2186   -0.8525 C   0  0  0  0  0  0  0  0  0  0  0  0
   -4.3479    3.4873   -1.3301 F   0  0  0  0  0  0  0  0  0  0  0  0
   -3.3485    1.3288   -1.1794 C   0  0  0  0  0  0  0  0  0  0  0  0
   -3.3519    0.0101   -0.6862 C   0  0  0  0  0  0  0  0  0  0  0  0
    1.4498    0.1950    0.1093 N   0  0  0  0  0  0  0  0  0  0  0  0
    2.7770    0.2836   -0.3554 N   0  0  0  0  0  0  0  0  0  0  0  0
    3.2055    0.4245   -1.6351 C   0  0  0  0  0  0  0  0  0  0  0  0
    4.5525    0.5825   -1.7257 N   0  0  0  0  0  0  0  0  0  0  0  0
    4.9536    0.5448   -0.4395 C   0  0  0  0  0  0  0  0  0  0  0  0
    6.2518    0.6698    0.0498 C   0  0  0  0  0  0  0  0  0  0  0  0
    6.4340    0.6137    1.4448 C   0  0  0  0  0  0  0  0  0  0  0  0
    5.3263    0.4372    2.3057 C   0  0  0  0  0  0  0  0  0  0  0  0
    4.0262    0.3155    1.7798 C   0  0  0  0  0  0  0  0  0  0  0  0
    3.8850    0.3762    0.3927 C   0  0  0  0  0  0  0  0  0  0  0  0
  1  2  2  0
  2  3  1  0
  4  3  1  1
  4  5  1  0
  5  6  1  0
  6  7  1  0
  7  8  1  0
  8  9  2  0
  9 10  1  0
 10 11  2  0
 11 12  1  0
 11 13  1  0
 13 14  2  0
  2 15  1  0
 15 16  1  0
 16 17  1  0
 17 18  2  0
 18 19  1  0
 19 20  2  0
 20 21  1  0
 21 22  2  0
 22 23  1  0
 23 24  2  0
 14  4  1  0
 24 16  1  0
 14  8  1  0
 24 19  1  0
M  END
$$$$
