
     RDKit          3D

 23 25  0  0  0  0  0  0  0  0999 V2000
   -2.3430   -1.3089    2.1127 O   0  0  0  0  0  0  0  0  0  0  0  0
   -1.5160   -1.2176    1.1671 C   0  0  0  0  0  0  0  0  0  0  0  0
   -0.2487   -2.0124    1.0847 C   0  0  0  0  0  0  0  0  0  0  0  0
    0.3766   -1.4938   -0.1294 N   0  0  0  0  0  0  0  0  0  0  0  0
    1.6542   -1.9386   -0.6790 C   0  0  0  0  0  0  0  0  0  0  0  0
    2.6873   -0.8574   -0.5218 C   0  0  0  0  0  0  0  0  0  0  0  0
    3.0409   -0.0436   -1.6108 C   0  0  0  0  0  0  0  0  0  0  0  0
    3.9782    0.9812   -1.4485 C   0  0  0  0  0  0  0  0  0  0  0  0
    4.5633    1.2052   -0.1987 C   0  0  0  0  0  0  0  0  0  0  0  0
    5.4707    2.2012   -0.0458 F   0  0  0  0  0  0  0  0  0  0  0  0
    4.2093    0.4048    0.8924 C   0  0  0  0  0  0  0  0  0  0  0  0
    4.7711    0.6242    2.1069 F   0  0  0  0  0  0  0  0  0  0  0  0
    3.2720   -0.6211    0.7332 C   0  0  0  0  0  0  0  0  0  0  0  0
   -0.4818   -0.5060   -0.6906 C   0  0  0  0  0  0  0  0  0  0  0  0
   -0.2465    0.0826   -1.7796 O   0  0  0  0  0  0  0  0  0  0  0  0
   -1.6563   -0.3035    0.0805 N   0  0  0  0  0  0  0  0  0  0  0  0
   -2.7275    0.6252   -0.1632 C   0  0  0  0  0  0  0  0  0  0  0  0
   -2.4681    1.8954   -0.7025 C   0  0  0  0  0  0  0  0  0  0  0  0
   -3.4880    2.7664   -0.9270 N   0  0  0  0  0  0  0  0  0  0  0  0
   -4.7782    2.4452   -0.6460 C   0  0  0  0  0  0  0  0  0  0  0  0
   -5.0857    1.1934   -0.1091 C   0  0  0  0  0  0  0  0  0  0  0  0
   -6.8964    0.7301    0.2832 Br  0  0  0  0  0  0  0  0  0  0  0  0
   -4.0553    0.2819    0.1332 C   0  0  0  0  0  0  0  0  0  0  0  0
  1  2  2  0
  2  3  1  0
  3  4  1  0
  4  5  1  0
  5  6  1  0
  6  7  2  0
  7  8  1  0
  8  9  2  0
  9 10  1  0
  9 11  1  0
 11 12  1  0
 11 13  2  0
  4 14  1  0
 14 15  2  0
 14 16  1  0
 16 17  1  0
 17 18  2  0
 18 19  1  0
 19 20  2  0
 20 21  1  0
 21 22  1  0
 21 23  2  0
 16  2  1  0
 23 17  1  0
 13  6  1  0
M  END
$$$$
