
     RDKit          3D

 22 24  0  0  0  0  0  0  0  0999 V2000
   -2.0350   -1.1329   -2.1073 C   0  0  0  0  0  0  0  0  0  0  0  0
   -1.8855   -1.2238   -0.5826 C   0  0  2  0  0  0  0  0  0  0  0  0
   -2.6366   -0.1505    0.1862 C   0  0  0  0  0  0  0  0  0  0  0  0
   -3.0865   -0.4400    1.4877 C   0  0  0  0  0  0  0  0  0  0  0  0
   -3.7431    0.5329    2.2469 C   0  0  0  0  0  0  0  0  0  0  0  0
   -3.9475    1.8103    1.7223 C   0  0  0  0  0  0  0  0  0  0  0  0
   -3.4906    2.1187    0.4396 C   0  0  0  0  0  0  0  0  0  0  0  0
   -2.8331    1.1497   -0.3244 C   0  0  0  0  0  0  0  0  0  0  0  0
   -0.4703   -1.2294   -0.1991 N   0  0  0  0  0  0  0  0  0  0  0  0
    0.1988   -2.3406    0.4755 C   0  0  0  0  0  0  0  0  0  0  0  0
    1.5832   -1.8143    0.6945 C   0  0  0  0  0  0  0  0  0  0  0  0
    2.4893   -2.4478    1.2978 O   0  0  0  0  0  0  0  0  0  0  0  0
    1.7458   -0.4896    0.1931 N   0  0  0  0  0  0  0  0  0  0  0  0
    2.9200    0.3395    0.2502 C   0  0  0  0  0  0  0  0  0  0  0  0
    2.8140    1.7209    0.4780 C   0  0  0  0  0  0  0  0  0  0  0  0
    3.9310    2.4945    0.5319 N   0  0  0  0  0  0  0  0  0  0  0  0
    5.1736    1.9698    0.3664 C   0  0  0  0  0  0  0  0  0  0  0  0
    5.3293    0.6012    0.1371 C   0  0  0  0  0  0  0  0  0  0  0  0
    7.0709   -0.1449   -0.1028 Br  0  0  0  0  0  0  0  0  0  0  0  0
    4.1975   -0.2153    0.0800 C   0  0  0  0  0  0  0  0  0  0  0  0
    0.4717   -0.1662   -0.3422 C   0  0  0  0  0  0  0  0  0  0  0  0
    0.2133    0.9242   -0.9178 O   0  0  0  0  0  0  0  0  0  0  0  0
  2  1  1  6
  2  3  1  0
  3  4  2  0
  4  5  1  0
  5  6  2  0
  6  7  1  0
  7  8  2  0
  2  9  1  0
  9 10  1  0
 10 11  1  0
 11 12  2  0
 11 13  1  0
 13 14  1  0
 14 15  2  0
 15 16  1  0
 16 17  2  0
 17 18  1  0
 18 19  1  0
 18 20  2  0
 13 21  1  0
 21 22  2  0
  8  3  1  0
 21  9  1  0
 20 14  1  0
M  END
$$$$
