
     RDKit          3D

 20 22  0  0  0  0  0  0  0  0999 V2000
    0.8283   -2.4727    0.3961 O   0  0  0  0  0  0  0  0  0  0  0  0
    0.1333   -1.4451    0.6204 C   0  0  0  0  0  0  0  0  0  0  0  0
    0.6022   -0.4492    1.5396 N   0  0  0  0  0  0  0  0  0  0  0  0
    1.9938   -0.3823    1.9772 C   0  0  0  0  0  0  0  0  0  0  0  0
    2.8628    0.1141    0.8550 C   0  0  0  0  0  0  0  0  0  0  0  0
    2.8229    1.4625    0.4725 C   0  0  0  0  0  0  0  0  0  0  0  0
    3.6064    1.9094   -0.5928 C   0  0  0  0  0  0  0  0  0  0  0  0
    4.4208    1.0006   -1.2709 C   0  0  0  0  0  0  0  0  0  0  0  0
    4.4436   -0.3058   -0.8949 N   0  0  0  0  0  0  0  0  0  0  0  0
    3.6894   -0.7655    0.1393 C   0  0  0  0  0  0  0  0  0  0  0  0
   -1.1490   -1.3112   -0.0074 N   0  0  0  0  0  0  0  0  0  0  0  0
   -2.0489   -2.4332   -0.2740 C   0  0  0  0  0  0  0  0  0  0  0  0
   -3.3605   -1.8096   -0.8097 C   0  0  0  0  0  0  0  0  0  0  0  0
   -3.0469   -0.3547   -0.8834 C   0  0  0  0  0  0  0  0  0  0  0  0
   -3.8477    0.6731   -1.3862 C   0  0  0  0  0  0  0  0  0  0  0  0
   -5.0996    0.4193   -1.8410 F   0  0  0  0  0  0  0  0  0  0  0  0
   -3.3233    1.9749   -1.4263 C   0  0  0  0  0  0  0  0  0  0  0  0
   -2.0099    2.2221   -0.9844 C   0  0  0  0  0  0  0  0  0  0  0  0
   -1.2206    1.1722   -0.4880 C   0  0  0  0  0  0  0  0  0  0  0  0
   -1.7810   -0.1098   -0.4220 C   0  0  0  0  0  0  0  0  0  0  0  0
  1  2  2  0
  2  3  1  0
  3  4  1  0
  4  5  1  0
  5  6  2  0
  6  7  1  0
  7  8  2  0
  8  9  1  0
  9 10  2  0
  2 11  1  0
 11 12  1  0
 12 13  1  0
 13 14  1  0
 14 15  2  0
 15 16  1  0
 15 17  1  0
 17 18  2  0
 18 19  1  0
 19 20  2  0
 10  5  1  0
 20 11  1  0
 20 14  1  0
M  END
$$$$
