
     RDKit          3D

 29 32  0  0  0  0  0  0  0  0999 V2000
   -0.6628    1.3506   -1.8388 O   0  0  0  0  0  0  0  0  0  0  0  0
   -0.5171    1.3522   -0.5868 C   0  0  0  0  0  0  0  0  0  0  0  0
    0.1404    2.4629    0.0525 N   0  0  0  0  0  0  0  0  0  0  0  0
    1.0580    2.2463    1.1805 C   0  0  0  0  0  0  0  0  0  0  0  0
    2.5069    2.0747    0.6999 C   0  0  0  0  0  0  0  0  0  0  0  0
    2.7388    0.7513   -0.0343 C   0  0  0  0  0  0  0  0  0  0  0  0
    2.3594   -0.3420    0.7994 O   0  0  0  0  0  0  0  0  0  0  0  0
    2.3777   -1.6868    0.4059 C   0  0  0  0  0  0  0  0  0  0  0  0
    1.8318   -2.6404    1.2748 C   0  0  0  0  0  0  0  0  0  0  0  0
    1.8051   -3.9914    0.9173 C   0  0  0  0  0  0  0  0  0  0  0  0
    2.3316   -4.4005   -0.3105 C   0  0  0  0  0  0  0  0  0  0  0  0
    2.8850   -3.4585   -1.1823 C   0  0  0  0  0  0  0  0  0  0  0  0
    2.9108   -2.1057   -0.8291 C   0  0  0  0  0  0  0  0  0  0  0  0
   -0.0129    3.8108   -0.5071 C   0  0  0  0  0  0  0  0  0  0  0  0
   -1.4193    4.2805   -0.3154 C   0  0  0  0  0  0  0  0  0  0  0  0
   -2.4507    4.2540   -1.2431 C   0  0  0  0  0  0  0  0  0  0  0  0
   -3.6911    4.6457   -0.6991 C   0  0  0  0  0  0  0  0  0  0  0  0
   -3.6953    4.9602    0.6230 N   0  0  0  0  0  0  0  0  0  0  0  0
   -2.1240    4.7486    1.1193 S   0  0  0  0  0  0  0  0  0  0  0  0
   -1.0421    0.2649    0.1873 N   0  0  0  0  0  0  0  0  0  0  0  0
   -1.9293    0.4431    1.3406 C   0  0  0  0  0  0  0  0  0  0  0  0
   -2.4902   -0.9612    1.6723 C   0  0  0  0  0  0  0  0  0  0  0  0
   -1.9354   -1.8184    0.5893 C   0  0  0  0  0  0  0  0  0  0  0  0
   -2.1389   -3.1844    0.3799 C   0  0  0  0  0  0  0  0  0  0  0  0
   -2.9282   -3.9051    1.2142 F   0  0  0  0  0  0  0  0  0  0  0  0
   -1.5045   -3.7985   -0.7121 C   0  0  0  0  0  0  0  0  0  0  0  0
   -0.6826   -3.0424   -1.5694 C   0  0  0  0  0  0  0  0  0  0  0  0
   -0.4870   -1.6721   -1.3351 C   0  0  0  0  0  0  0  0  0  0  0  0
   -1.1327   -1.0846   -0.2409 C   0  0  0  0  0  0  0  0  0  0  0  0
  1  2  2  0
  2  3  1  0
  3  4  1  0
  4  5  1  0
  5  6  1  0
  6  7  1  0
  7  8  1  0
  8  9  2  0
  9 10  1  0
 10 11  2  0
 11 12  1  0
 12 13  2  0
  3 14  1  0
 14 15  1  0
 15 16  2  0
 16 17  1  0
 17 18  2  0
 18 19  1  0
  2 20  1  0
 20 21  1  0
 21 22  1  0
 22 23  1  0
 23 24  2  0
 24 25  1  0
 24 26  1  0
 26 27  2  0
 27 28  1  0
 28 29  2  0
 13  8  1  0
 19 15  1  0
 29 20  1  0
 29 23  1  0
M  END
$$$$
