
     RDKit          3D

 20 22  0  0  0  0  0  0  0  0999 V2000
    0.2873    0.0498    1.6614 O   0  0  0  0  0  0  0  0  0  0  0  0
    0.0573   -0.6953    0.6717 C   0  0  0  0  0  0  0  0  0  0  0  0
    1.0432   -1.6584    0.2664 N   0  0  0  0  0  0  0  0  0  0  0  0
    2.3422   -1.7727    0.9259 C   0  0  0  0  0  0  0  0  0  0  0  0
    3.2202   -0.6099    0.5524 C   0  0  0  0  0  0  0  0  0  0  0  0
    3.7309   -0.4979   -0.7486 C   0  0  0  0  0  0  0  0  0  0  0  0
    4.5281    0.5947   -1.0941 C   0  0  0  0  0  0  0  0  0  0  0  0
    4.8047    1.5700   -0.1341 C   0  0  0  0  0  0  0  0  0  0  0  0
    4.2985    1.4520    1.1221 N   0  0  0  0  0  0  0  0  0  0  0  0
    3.5198    0.3969    1.4832 C   0  0  0  0  0  0  0  0  0  0  0  0
   -1.1964   -0.5975   -0.0303 N   0  0  0  0  0  0  0  0  0  0  0  0
   -1.7328   -1.6470   -0.9012 C   0  0  0  0  0  0  0  0  0  0  0  0
   -3.1783   -1.2253   -1.2518 C   0  0  0  0  0  0  0  0  0  0  0  0
   -3.3252    0.0933   -0.5794 C   0  0  0  0  0  0  0  0  0  0  0  0
   -4.4272    0.9507   -0.6099 C   0  0  0  0  0  0  0  0  0  0  0  0
   -5.5515    0.6131   -1.2887 F   0  0  0  0  0  0  0  0  0  0  0  0
   -4.3451    2.1751    0.0704 C   0  0  0  0  0  0  0  0  0  0  0  0
   -3.1672    2.5244    0.7556 C   0  0  0  0  0  0  0  0  0  0  0  0
   -2.0697    1.6484    0.7716 C   0  0  0  0  0  0  0  0  0  0  0  0
   -2.1830    0.4200    0.1040 C   0  0  0  0  0  0  0  0  0  0  0  0
  1  2  2  0
  2  3  1  0
  3  4  1  0
  4  5  1  0
  5  6  2  0
  6  7  1  0
  7  8  2  0
  8  9  1  0
  9 10  2  0
  2 11  1  0
 11 12  1  0
 12 13  1  0
 13 14  1  0
 14 15  2  0
 15 16  1  0
 15 17  1  0
 17 18  2  0
 18 19  1  0
 19 20  2  0
 10  5  1  0
 20 11  1  0
 20 14  1  0
M  END
$$$$
