
     RDKit          3D

 20 21  0  0  0  0  0  0  0  0999 V2000
   -6.9991   -0.8912   -1.3376 N   0  0  0  0  0  0  0  0  0  0  0  0
   -5.8881   -1.3077   -0.8189 C   0  0  0  0  0  0  0  0  0  0  0  0
   -4.8411   -0.3740   -0.3809 C   0  0  0  0  0  0  0  0  0  0  0  0
   -4.9337    0.9723   -0.4796 N   0  0  0  0  0  0  0  0  0  0  0  0
   -3.7559    1.3777    0.0337 C   0  0  0  0  0  0  0  0  0  0  0  0
   -3.0093    0.3303    0.4217 N   0  0  0  0  0  0  0  0  0  0  0  0
   -1.6561    0.3721    0.9677 C   0  0  0  0  0  0  0  0  0  0  0  0
   -0.6220    0.1939   -0.1513 C   0  0  1  0  0  0  0  0  0  0  0  0
   -0.7380    1.2563   -1.0631 O   0  0  0  0  0  0  0  0  0  0  0  0
    0.7960    0.1606    0.4292 C   0  0  0  0  0  0  0  0  0  0  0  0
    1.7365   -0.0739   -0.6163 O   0  0  0  0  0  0  0  0  0  0  0  0
    3.1255   -0.1597   -0.4342 C   0  0  0  0  0  0  0  0  0  0  0  0
    3.7253   -0.0245    0.8342 C   0  0  0  0  0  0  0  0  0  0  0  0
    5.1147   -0.1168    0.9717 C   0  0  0  0  0  0  0  0  0  0  0  0
    5.8532    0.0526    2.5540 Cl  0  0  0  0  0  0  0  0  0  0  0  0
    5.9151   -0.3440   -0.1512 C   0  0  0  0  0  0  0  0  0  0  0  0
    5.3290   -0.4791   -1.4115 C   0  0  0  0  0  0  0  0  0  0  0  0
    3.9400   -0.3878   -1.5555 C   0  0  0  0  0  0  0  0  0  0  0  0
    3.2285   -0.5606   -3.1528 Cl  0  0  0  0  0  0  0  0  0  0  0  0
   -3.6747   -0.7788    0.1583 N   0  0  0  0  0  0  0  0  0  0  0  0
  1  2  2  0
  2  3  1  0
  3  4  1  0
  4  5  2  0
  5  6  1  0
  6  7  1  0
  7  8  1  0
  8  9  1  6
  8 10  1  0
 10 11  1  0
 11 12  1  0
 12 13  2  0
 13 14  1  0
 14 15  1  0
 14 16  2  0
 16 17  1  0
 17 18  2  0
 18 19  1  0
  6 20  1  0
 20  3  2  0
 18 12  1  0
M  END
$$$$
